<?xml version="1.0" encoding="utf-8"?>
<!DOCTYPE population SYSTEM "http://www.matsim.org/files/dtd/population_v5.dtd">

<population>
	

<!-- ====================================================================== -->			
			
	<person id="1" sex="m" age="24" license="yes" car_avail="always" employed="no">		
		<plan selected="no">	
			<act type="home" x="1238071.55423" y="5791347.637" start_time="00:00:00" end_time="06:45:00" />
			<leg mode="car" >
			</leg>
			<act type="education" x="1241128.94405" y="5791028.98959" start_time="07:10:00" end_time="13:10:00" />
			<leg mode="car" >
			</leg>
			<act type="home" x="1238071.55423" y="5791347.637" start_time="13:20:00" end_time="17:20:00" />
			<leg mode="car" >
			</leg>
			<act type="leisure" x="1238017.00768" y="5794235.72147" start_time="17:30:00" end_time="17:50:00" />
			<leg mode="car" >
			</leg>
			<act type="home" x="1238071.55423" y="5791347.637" start_time="18:10:00" />
		</plan>	
			
		<plan selected="no">	
			<act type="home" x="1238071.54867" y="5791347.62897" start_time="00:00:00" end_time="06:25:00" />
			<leg mode="car" >
			</leg>
			<act type="education" x="1237615.30017" y="5790966.97822" start_time="06:50:00" end_time="11:00:00" />
			<leg mode="car" >
			</leg>
			<act type="home" x="1238071.54867" y="5791347.62897" start_time="11:10:00" end_time="16:50:00" />
			<leg mode="car" >
			</leg>
			<act type="leisure" x="1239026.73112" y="5780976.73613" start_time="17:10:00" end_time="20:30:00" />
			<leg mode="car" >
			</leg>
			<act type="home" x="1238071.54867" y="5791347.62897" start_time="20:50:00" />
		</plan>	
			
		<plan selected="no">	
			<act type="home" x="1238071.54867" y="5791347.62897" start_time="00:00:00" end_time="06:25:00" />
			<leg mode="car" >
			</leg>
			<act type="education" x="1239377.07582" y="5781565.79884" start_time="06:50:00" end_time="12:40:00" />
			<leg mode="car" >
			</leg>
			<act type="education" x="1239377.07582" y="5781565.79884" start_time="13:00:00" end_time="16:10:00" />
			<leg mode="car" >
			</leg>
			<act type="education" x="1239377.07582" y="5781565.79884" start_time="16:30:00" end_time="16:50:00" />
			<leg mode="car" >
			</leg>
			<act type="leisure" x="1241300.98832" y="5790950.22801" start_time="17:10:00" end_time="17:30:00" />
			<leg mode="car" >
			</leg>
			<act type="shop" x="1237605.99386" y="5794811.7821" start_time="17:50:00" end_time="18:10:00" />
			<leg mode="car" >
			</leg>
			<act type="home" x="1238071.54867" y="5791347.62897" start_time="18:30:00" />
		</plan>	
			
		<plan selected="no">	
			<act type="home" x="1238071.54867" y="5791347.62897" start_time="00:00:00" end_time="06:45:00" />
			<leg mode="car" >
			</leg>
			<act type="education" x="1239442.89904" y="5781763.38522" start_time="07:10:00" end_time="08:50:00" />
			<leg mode="car" >
			</leg>
			<act type="home" x="1238071.54867" y="5791347.62897" start_time="09:10:00" end_time="09:30:00" />
			<leg mode="car" >
			</leg>
			<act type="shop" x="1238198.95939" y="5791413.58208" start_time="09:50:00" end_time="10:20:00" />
			<leg mode="car" >
			</leg>
			<act type="home" x="1238071.54867" y="5791347.62897" start_time="10:30:00" end_time="16:50:00" />
			<leg mode="car" >
			</leg>
			<act type="education" x="1239442.89904" y="5781763.38522" start_time="17:00:00" end_time="19:20:00" />
			<leg mode="car" >
			</leg>
			<act type="home" x="1238071.54867" y="5791347.62897" start_time="19:40:00" />
		</plan>	
			
		<plan selected="no">	
			<act type="home" x="1238071.54867" y="5791347.62897" start_time="00:00:00" end_time="06:55:00" />
			<leg mode="car" >
			</leg>
			<act type="education" x="1239442.89904" y="5781763.38522" start_time="07:20:00" end_time="12:50:00" />
			<leg mode="car" >
			</leg>
			<act type="home" x="1238071.54867" y="5791347.62897" start_time="13:00:00" />
		</plan>	
			
	</person>		
			
<!-- ====================================================================== -->			
			
	<person id="2" sex="f" age="36" license="yes" car_avail="always" employed="yes">		
		<plan selected="no">	
			<act type="home" x="1238073.00139" y="5791208.36774" start_time="00:00:00" end_time="07:35:00" />
			<leg mode="car" >
			</leg>
			<act type="work" x="1236388.18089" y="5797881.95551" start_time="08:00:00" end_time="15:40:00" />
			<leg mode="car" >
			</leg>
			<act type="home" x="1238073.00139" y="5791208.36774" start_time="16:00:00" />
		</plan>	
			
		<plan selected="no">	
			<act type="home" x="1238072.99916" y="5791208.38378" start_time="00:00:00" end_time="09:55:00" />
			<leg mode="car" >
			</leg>
			<act type="work" x="1237902.44879" y="5791185.34359" start_time="10:20:00" end_time="19:20:00" />
			<leg mode="car" >
			</leg>
			<act type="home" x="1238072.99916" y="5791208.38378" start_time="19:20:00" end_time="20:00:00" />
			<leg mode="car" >
			</leg>
			<act type="shop" x="1236498.06436" y="5795102.05766" start_time="20:10:00" end_time="21:10:00" />
			<leg mode="car" >
			</leg>
			<act type="home" x="1238072.99916" y="5791208.38378" start_time="21:30:00" />
		</plan>	
			
		<plan selected="no">	
			<act type="home" x="1238072.99916" y="5791208.38378" start_time="00:00:00" end_time="07:25:00" />
			<leg mode="car" >
			</leg>
			<act type="work" x="1240128.31541" y="5797931.7639" start_time="07:50:00" end_time="16:20:00" />
			<leg mode="car" >
			</leg>
			<act type="leisure" x="1236768.11431" y="5795527.80917" start_time="16:30:00" end_time="17:40:00" />
			<leg mode="car" >
			</leg>
			<act type="home" x="1238072.99916" y="5791208.38378" start_time="17:50:00" />
		</plan>	
			
		<plan selected="no">	
			<act type="home" x="1238072.99916" y="5791208.38378" start_time="00:00:00" end_time="05:05:00" />
			<leg mode="car" >
			</leg>
			<act type="work" x="1237622.91442" y="5794866.21206" start_time="05:30:00" end_time="14:40:00" />
			<leg mode="car" >
			</leg>
			<act type="shop" x="1239841.05546" y="5788048.57092" start_time="15:00:00" end_time="15:20:00" />
			<leg mode="car" >
			</leg>
			<act type="home" x="1238072.99916" y="5791208.38378" start_time="15:40:00" />
		</plan>	
			
		<plan selected="no">	
			<act type="home" x="1238072.99916" y="5791208.38378" start_time="00:00:00" end_time="07:05:00" />
			<leg mode="car" >
			</leg>
			<act type="work" x="1235646.96006" y="5796852.69302" start_time="07:30:00" end_time="16:20:00" />
			<leg mode="car" >
			</leg>
			<act type="home" x="1238072.99916" y="5791208.38378" start_time="16:30:00" end_time="18:20:00" />
			<leg mode="car" >
			</leg>
			<act type="home" x="1238072.99916" y="5791208.38378" start_time="18:50:00" />
		</plan>	
			
	</person>		
			
<!-- ====================================================================== -->			
			
	<person id="3" sex="f" age="45" license="yes" car_avail="always" employed="yes">		
		<plan selected="no">	
			<act type="home" x="1238083.13146" y="5791279.44613" start_time="00:00:00" end_time="07:55:00" />
			<leg mode="car" >
			</leg>
			<act type="work" x="1239119.9612" y="5790929.5149" start_time="08:20:00" end_time="17:20:00" />
			<leg mode="car" >
			</leg>
			<act type="home" x="1238083.13146" y="5791279.44613" start_time="17:30:00" />
		</plan>	
			
		<plan selected="no">	
			<act type="home" x="1238083.15595" y="5791279.48143" start_time="00:00:00" end_time="07:25:00" />
			<leg mode="car" >
			</leg>
			<act type="work" x="1238000.83296" y="5790007.59815" start_time="07:50:00" end_time="16:40:00" />
			<leg mode="car" >
			</leg>
			<act type="home" x="1238083.15595" y="5791279.48143" start_time="16:40:00" end_time="19:00:00" />
			<leg mode="car" >
			</leg>
			<act type="shop" x="1238059.18664" y="5794413.12618" start_time="19:10:00" end_time="19:20:00" />
			<leg mode="car" >
			</leg>
			<act type="home" x="1238083.15595" y="5791279.48143" start_time="19:40:00" />
		</plan>	
			
		<plan selected="no">	
			<act type="home" x="1238083.15595" y="5791279.48143" start_time="00:00:00" end_time="07:05:00" />
			<leg mode="car" >
			</leg>
			<act type="work" x="1237814.81809" y="5792515.27448" start_time="07:30:00" end_time="16:50:00" />
			<leg mode="car" >
			</leg>
			<act type="home" x="1238083.15595" y="5791279.48143" start_time="17:00:00" />
		</plan>	
			
		<plan selected="no">	
			<act type="home" x="1238083.15595" y="5791279.48143" start_time="00:00:00" end_time="05:25:00" />
			<leg mode="car" >
			</leg>
			<act type="work" x="1241807.09125" y="5790961.63548" start_time="05:50:00" end_time="10:10:00" />
			<leg mode="car" >
			</leg>
			<act type="home" x="1238083.15595" y="5791279.48143" start_time="10:20:00" end_time="11:00:00" />
			<leg mode="car" >
			</leg>
			<act type="shop" x="1238055.63554" y="5791659.63697" start_time="11:20:00" end_time="13:40:00" />
			<leg mode="car" >
			</leg>
			<act type="leisure" x="1237886.18502" y="5794768.57224" start_time="14:00:00" end_time="16:40:00" />
			<leg mode="car" >
			</leg>
			<act type="work" x="1241807.09125" y="5790961.63548" start_time="16:50:00" end_time="19:30:00" />
			<leg mode="car" >
			</leg>
			<act type="home" x="1238083.15595" y="5791279.48143" start_time="19:40:00" />
		</plan>	
			
		<plan selected="no">	
			<act type="home" x="1238083.15595" y="5791279.48143" start_time="00:00:00" end_time="07:05:00" />
			<leg mode="car" >
			</leg>
			<act type="work" x="1238383.62729" y="5791193.43011" start_time="07:30:00" end_time="16:10:00" />
			<leg mode="car" >
			</leg>
			<act type="home" x="1238083.15595" y="5791279.48143" start_time="16:30:00" end_time="16:50:00" />
			<leg mode="car" >
			</leg>
			<act type="leisure" x="1238794.2181" y="5792242.95959" start_time="17:00:00" end_time="19:00:00" />
			<leg mode="car" >
			</leg>
			<act type="home" x="1238083.15595" y="5791279.48143" start_time="19:20:00" end_time="20:40:00" />
			<leg mode="car" >
			</leg>
			<act type="leisure" x="1237229.88983" y="5796099.15385" start_time="21:00:00" end_time="22:50:00" />
			<leg mode="car" >
			</leg>
			<act type="home" x="1238083.15595" y="5791279.48143" start_time="23:10:00" />
		</plan>	
			
	</person>		
			
<!-- ====================================================================== -->			
			
	<person id="4" sex="f" age="48" license="yes" car_avail="always" employed="yes">		
		<plan selected="no">	
			<act type="home" x="1238043.947" y="5791270.46102" start_time="00:00:00" end_time="07:25:00" />
			<leg mode="car" >
			</leg>
			<act type="work" x="1238818.50801" y="5789544.36575" start_time="07:50:00" end_time="19:00:00" />
			<leg mode="car" >
			</leg>
			<act type="home" x="1238043.947" y="5791270.46102" start_time="19:10:00" />
		</plan>	
			
		<plan selected="no">	
			<act type="home" x="1238043.96926" y="5791270.39523" start_time="00:00:00" end_time="09:05:00" />
			<leg mode="car" >
			</leg>
			<act type="work" x="1238147.26262" y="5791279.87934" start_time="09:30:00" end_time="18:30:00" />
			<leg mode="car" >
			</leg>
			<act type="home" x="1238043.96926" y="5791270.39523" start_time="19:00:00" />
		</plan>	
			
		<plan selected="no">	
			<act type="home" x="1238043.96926" y="5791270.39523" start_time="00:00:00" end_time="08:25:00" />
			<leg mode="car" >
			</leg>
			<act type="work" x="1239387.27269" y="5789574.71671" start_time="08:50:00" end_time="17:40:00" />
			<leg mode="car" >
			</leg>
			<act type="home" x="1238043.96926" y="5791270.39523" start_time="17:50:00" end_time="18:20:00" />
			<leg mode="car" >
			</leg>
			<act type="shop" x="1238441.75833" y="5791258.36322" start_time="18:30:00" end_time="19:30:00" />
			<leg mode="car" >
			</leg>
			<act type="home" x="1238043.96926" y="5791270.39523" start_time="19:50:00" />
		</plan>	
			
		<plan selected="no">	
			<act type="home" x="1238043.96926" y="5791270.39523" start_time="00:00:00" end_time="04:35:00" />
			<leg mode="car" >
			</leg>
			<act type="work" x="1238443.20548" y="5780308.1481" start_time="05:00:00" end_time="13:50:00" />
			<leg mode="car" >
			</leg>
			<act type="home" x="1238043.96926" y="5791270.39523" start_time="14:00:00" />
		</plan>	
			
		<plan selected="no">	
			<act type="home" x="1238043.96926" y="5791270.39523" start_time="00:00:00" end_time="10:35:00" />
			<leg mode="car" >
			</leg>
			<act type="shop" x="1238686.02669" y="5791383.7543" start_time="11:00:00" end_time="11:20:00" />
			<leg mode="car" >
			</leg>
			<act type="home" x="1238043.96926" y="5791270.39523" start_time="11:40:00" end_time="15:40:00" />
			<leg mode="car" >
			</leg>
			<act type="leisure" x="1236234.67131" y="5783195.36092" start_time="16:00:00" end_time="16:20:00" />
			<leg mode="car" >
			</leg>
			<act type="leisure" x="1238930.76259" y="5791012.17508" start_time="16:40:00" end_time="18:40:00" />
			<leg mode="car" >
			</leg>
			<act type="home" x="1238043.96926" y="5791270.39523" start_time="18:50:00" />
		</plan>	
			
	</person>		
			
<!-- ====================================================================== -->			
			
	<person id="5" sex="f" age="29" license="yes" car_avail="always" employed="no">		
		<plan selected="no">	
			<act type="home" x="1238113.29904" y="5791308.80825" start_time="00:00:00" end_time="07:25:00" />
			<leg mode="car" >
			</leg>
			<act type="education" x="1237729.8034" y="5790995.77775" start_time="07:50:00" end_time="12:30:00" />
			<leg mode="car" >
			</leg>
			<act type="home" x="1238113.29904" y="5791308.80825" start_time="12:45:00" />
		</plan>	
			
		<plan selected="no">	
			<act type="home" x="1238113.33466" y="5791308.82269" start_time="00:00:00" end_time="10:05:00" />
			<leg mode="car" >
			</leg>
			<act type="work" x="1241438.76845" y="5790997.70307" start_time="10:30:00" end_time="14:30:00" />
			<leg mode="car" >
			</leg>
			<act type="home" x="1238113.33466" y="5791308.82269" start_time="14:40:00" />
		</plan>	
			
		<plan selected="no">	
			<act type="home" x="1238113.33466" y="5791308.82269" start_time="00:00:00" end_time="06:45:00" />
			<leg mode="car" >
			</leg>
			<act type="education" x="1241128.97744" y="5791029.00563" start_time="07:10:00" end_time="14:50:00" />
			<leg mode="car" >
			</leg>
			<act type="shop" x="1238304.95781" y="5790242.62454" start_time="15:10:00" end_time="15:50:00" />
			<leg mode="car" >
			</leg>
			<act type="leisure" x="1239439.82662" y="5788760.45833" start_time="16:10:00" end_time="18:10:00" />
			<leg mode="car" >
			</leg>
			<act type="home" x="1238113.33466" y="5791308.82269" start_time="18:30:00" />
		</plan>	
			
		<plan selected="no">	
			<act type="home" x="1238113.33466" y="5791308.82269" start_time="00:00:00" end_time="06:25:00" />
			<leg mode="car" >
			</leg>
			<act type="education" x="1237729.83679" y="5790995.82589" start_time="06:50:00" end_time="12:20:00" />
			<leg mode="car" >
			</leg>
			<act type="home" x="1238113.33466" y="5791308.82269" start_time="12:40:00" end_time="15:00:00" />
			<leg mode="car" >
			</leg>
			<act type="shop" x="1238223.27157" y="5788611.75008" start_time="15:40:00" end_time="16:40:00" />
			<leg mode="car" >
			</leg>
			<act type="home" x="1238113.33466" y="5791308.82269" start_time="16:50:00" />
		</plan>	
			
		<plan selected="no">	
			<act type="home" x="1238113.33466" y="5791308.82269" start_time="00:00:00" end_time="07:35:00" />
			<leg mode="car" >
			</leg>
			<act type="education" x="1239445.52618" y="5781749.58544" start_time="08:00:00" end_time="08:20:00" />
			<leg mode="car" >
			</leg>
			<act type="education" x="1239445.52618" y="5781749.58544" start_time="08:40:00" end_time="12:40:00" />
			<leg mode="car" >
			</leg>
			<act type="home" x="1238113.33466" y="5791308.82269" start_time="13:00:00" />
		</plan>	
			
	</person>		
			
<!-- ====================================================================== -->			
			
	<person id="6" sex="f" age="22" license="yes" car_avail="always" employed="no">		
		<plan selected="no">	
			<act type="home" x="1238086.805" y="5791282.3342" start_time="00:00:00" end_time="07:05:00" />
			<leg mode="car" >
			</leg>
			<act type="education" x="1238209.14512" y="5791055.94421" start_time="07:30:00" end_time="13:20:00" />
			<leg mode="car" >
			</leg>
			<act type="home" x="1238086.805" y="5791282.3342" start_time="13:35:00" />
		</plan>	
			
		<plan selected="no">	
			<act type="home" x="1238086.75936" y="5791282.34543" start_time="00:00:00" end_time="07:25:00" />
			<leg mode="car" >
			</leg>
			<act type="education" x="1237615.30017" y="5790966.97822" start_time="07:50:00" end_time="14:20:00" />
			<leg mode="car" >
			</leg>
			<act type="home" x="1238086.75936" y="5791282.34543" start_time="14:20:00" />
		</plan>	
			
		<plan selected="no">	
			<act type="home" x="1238086.75936" y="5791282.34543" start_time="00:00:00" end_time="07:55:00" />
			<leg mode="car" >
			</leg>
			<act type="education" x="1237729.83679" y="5790995.82589" start_time="08:20:00" end_time="14:10:00" />
			<leg mode="car" >
			</leg>
			<act type="leisure" x="1237451.91655" y="5796901.33966" start_time="14:20:00" end_time="14:40:00" />
			<leg mode="car" >
			</leg>
			<act type="home" x="1238086.75936" y="5791282.34543" start_time="15:00:00" end_time="18:30:00" />
			<leg mode="car" >
			</leg>
			<act type="leisure" x="1240451.44249" y="5792825.79106" start_time="18:50:00" end_time="19:10:00" />
			<leg mode="car" >
			</leg>
			<act type="leisure" x="1239273.29266" y="5782740.14655" start_time="19:30:00" end_time="20:40:00" />
			<leg mode="car" >
			</leg>
			<act type="leisure" x="1238099.65127" y="5790805.91114" start_time="20:50:00" end_time="21:10:00" />
			<leg mode="car" >
			</leg>
			<act type="home" x="1238086.75936" y="5791282.34543" start_time="21:20:00" />
		</plan>	
			
		<plan selected="no">	
			<act type="home" x="1238086.75936" y="5791282.34543" start_time="00:00:00" end_time="09:35:00" />
			<leg mode="car" >
			</leg>
			<act type="shop" x="1237806.01272" y="5792493.85164" start_time="10:00:00" end_time="10:30:00" />
			<leg mode="car" >
			</leg>
			<act type="home" x="1238086.75936" y="5791282.34543" start_time="10:40:00" end_time="10:50:00" />
			<leg mode="car" >
			</leg>
			<act type="leisure" x="1236948.11793" y="5796579.26537" start_time="11:00:00" end_time="12:40:00" />
			<leg mode="car" >
			</leg>
			<act type="home" x="1238086.75936" y="5791282.34543" start_time="13:00:00" end_time="18:00:00" />
			<leg mode="car" >
			</leg>
			<act type="home" x="1238086.75936" y="5791282.34543" start_time="19:00:00" />
		</plan>	
			
		<plan selected="no">	
			<act type="home" x="1238086.75936" y="5791282.34543" start_time="00:00:00" end_time="06:35:00" />
			<leg mode="car" >
			</leg>
			<act type="education" x="1237729.83679" y="5790995.82589" start_time="07:00:00" end_time="09:00:00" />
			<leg mode="car" >
			</leg>
			<act type="education" x="1237729.83679" y="5790995.82589" start_time="09:20:00" end_time="14:10:00" />
			<leg mode="car" >
			</leg>
			<act type="shop" x="1237278.98172" y="5795001.33334" start_time="14:30:00" end_time="14:50:00" />
			<leg mode="car" >
			</leg>
			<act type="home" x="1238086.75936" y="5791282.34543" start_time="15:10:00" end_time="17:00:00" />
			<leg mode="car" >
			</leg>
			<act type="shop" x="1238350.50974" y="5791360.50507" start_time="17:20:00" end_time="17:40:00" />
			<leg mode="car" >
			</leg>
			<act type="home" x="1238086.75936" y="5791282.34543" start_time="18:00:00" />
		</plan>	
			
	</person>		
			
<!-- ====================================================================== -->			
			
	<person id="7" sex="f" age="52" license="yes" car_avail="always" employed="yes">		
		<plan selected="no">	
			<act type="home" x="1238038.04707" y="5791299.82311" start_time="00:00:00" end_time="10:05:00" />
			<leg mode="car" >
			</leg>
			<act type="work" x="1238497.23996" y="5789910.9263" start_time="10:30:00" end_time="14:30:00" />
			<leg mode="car" >
			</leg>
			<act type="work" x="1238497.23996" y="5789910.9263" start_time="14:40:00" end_time="19:30:00" />
			<leg mode="car" >
			</leg>
			<act type="home" x="1238038.04707" y="5791299.82311" start_time="19:40:00" />
		</plan>	
			
		<plan selected="no">	
			<act type="home" x="1238037.99474" y="5791299.7477" start_time="00:00:00" end_time="06:45:00" />
			<leg mode="car" >
			</leg>
			<act type="work" x="1238787.65025" y="5789533.60177" start_time="07:10:00" end_time="16:50:00" />
			<leg mode="car" >
			</leg>
			<act type="home" x="1238037.99474" y="5791299.7477" start_time="16:50:00" end_time="17:20:00" />
			<leg mode="car" >
			</leg>
			<act type="leisure" x="1237177.0242" y="5790122.0464" start_time="17:30:00" end_time="21:00:00" />
			<leg mode="car" >
			</leg>
			<act type="home" x="1238037.99474" y="5791299.7477" start_time="21:20:00" end_time="00:20:00" />
			<leg mode="car" >
			</leg>
			<act type="leisure" x="1237215.00641" y="5790097.64541" start_time="00:30:00" />
		</plan>	
			
		<plan selected="no">	
			<act type="home" x="1238037.99474" y="5791299.7477" start_time="00:00:00" end_time="07:45:00" />
			<leg mode="car" >
			</leg>
			<act type="work" x="1237824.10214" y="5796149.25723" start_time="08:10:00" end_time="14:50:00" />
			<leg mode="car" >
			</leg>
			<act type="home" x="1238037.99474" y="5791299.7477" start_time="15:10:00" end_time="16:10:00" />
			<leg mode="car" >
			</leg>
			<act type="shop" x="1237018.02657" y="5795323.54285" start_time="16:20:00" end_time="17:00:00" />
			<leg mode="car" >
			</leg>
			<act type="home" x="1238037.99474" y="5791299.7477" start_time="17:20:00" />
		</plan>	
			
		<plan selected="no">	
			<act type="home" x="1238037.99474" y="5791299.7477" start_time="00:00:00" end_time="08:05:00" />
			<leg mode="car" >
			</leg>
			<act type="work" x="1238371.82743" y="5790098.59193" start_time="08:30:00" end_time="18:10:00" />
			<leg mode="car" >
			</leg>
			<act type="home" x="1238037.99474" y="5791299.7477" start_time="18:20:00" />
		</plan>	
			
		<plan selected="no">	
			<act type="home" x="1238037.99474" y="5791299.7477" start_time="00:00:00" end_time="07:15:00" />
			<leg mode="car" >
			</leg>
			<act type="work" x="1238261.84377" y="5791563.66913" start_time="07:40:00" end_time="17:20:00" />
			<leg mode="car" >
			</leg>
			<act type="home" x="1238037.99474" y="5791299.7477" start_time="17:40:00" />
		</plan>	
			
	</person>		
			
<!-- ====================================================================== -->			
			
	<person id="8" sex="f" age="29" license="yes" car_avail="always" employed="yes">		
		<plan selected="no">	
			<act type="home" x="1238115.19147" y="5791388.07042" start_time="00:00:00" end_time="07:55:00" />
			<leg mode="car" >
			</leg>
			<act type="work" x="1237580.63528" y="5794887.86535" start_time="08:20:00" end_time="17:50:00" />
			<leg mode="car" >
			</leg>
			<act type="home" x="1238115.19147" y="5791388.07042" start_time="18:00:00" end_time="19:00:00" />
			<leg mode="car" >
			</leg>
			<act type="shop" x="1237268.27279" y="5790174.50635" start_time="19:20:00" end_time="22:00:00" />
			<leg mode="car" >
			</leg>
			<act type="home" x="1238115.19147" y="5791388.07042" start_time="22:20:00" />
		</plan>	
			
		<plan selected="no">	
			<act type="home" x="1238115.22821" y="5791388.0287" start_time="00:00:00" end_time="06:35:00" />
			<leg mode="car" >
			</leg>
			<act type="work" x="1238727.98301" y="5790420.09366" start_time="07:00:00" end_time="15:50:00" />
			<leg mode="car" >
			</leg>
			<act type="home" x="1238115.22821" y="5791388.0287" start_time="15:50:00" end_time="16:20:00" />
			<leg mode="car" >
			</leg>
			<act type="leisure" x="1241266.11192" y="5791249.92366" start_time="16:30:00" end_time="18:30:00" />
			<leg mode="car" >
			</leg>
			<act type="home" x="1238115.22821" y="5791388.0287" start_time="18:40:00" end_time="20:10:00" />
			<leg mode="car" >
			</leg>
			<act type="leisure" x="1236958.48178" y="5786840.94881" start_time="20:30:00" end_time="22:20:00" />
			<leg mode="car" >
			</leg>
			<act type="home" x="1238115.22821" y="5791388.0287" start_time="22:40:00" />
		</plan>	
			
		<plan selected="no">	
			<act type="home" x="1238115.22821" y="5791388.0287" start_time="00:00:00" end_time="07:25:00" />
			<leg mode="car" >
			</leg>
			<act type="shop" x="1237631.44149" y="5794813.62799" start_time="07:50:00" end_time="08:10:00" />
			<leg mode="car" >
			</leg>
			<act type="work" x="1238255.24252" y="5790560.23292" start_time="08:30:00" end_time="16:30:00" />
			<leg mode="car" >
			</leg>
			<act type="home" x="1238115.22821" y="5791388.0287" start_time="16:50:00" end_time="20:10:00" />
			<leg mode="car" >
			</leg>
			<act type="shop" x="1238675.29549" y="5789842.42565" start_time="20:20:00" end_time="22:10:00" />
			<leg mode="car" >
			</leg>
			<act type="home" x="1238115.22821" y="5791388.0287" start_time="22:20:00" />
		</plan>	
			
		<plan selected="no">	
			<act type="home" x="1238115.22821" y="5791388.0287" start_time="00:00:00" end_time="05:35:00" />
			<leg mode="car" >
			</leg>
			<act type="work" x="1237280.91868" y="5793942.98661" start_time="06:00:00" end_time="15:20:00" />
			<leg mode="car" >
			</leg>
			<act type="shop" x="1238400.89295" y="5791373.38921" start_time="15:30:00" end_time="15:40:00" />
			<leg mode="car" >
			</leg>
			<act type="shop" x="1238291.52155" y="5790087.26578" start_time="15:50:00" end_time="16:10:00" />
			<leg mode="car" >
			</leg>
			<act type="shop" x="1238432.15146" y="5791317.24787" start_time="16:20:00" end_time="16:30:00" />
			<leg mode="car" >
			</leg>
			<act type="home" x="1238115.22821" y="5791388.0287" start_time="16:40:00" />
		</plan>	
			
		<plan selected="no">	
			<act type="home" x="1238115.22821" y="5791388.0287" start_time="00:00:00" end_time="07:05:00" />
			<leg mode="car" >
			</leg>
			<act type="work" x="1240526.97277" y="5788643.63769" start_time="07:30:00" end_time="14:20:00" />
			<leg mode="car" >
			</leg>
			<act type="home" x="1238115.22821" y="5791388.0287" start_time="14:30:00" />
		</plan>	
			
	</person>		
			
<!-- ====================================================================== -->			
			
	<person id="9" sex="f" age="28" license="yes" car_avail="always" employed="yes">		
		<plan selected="no">	
			<act type="home" x="1238141.01759" y="5791382.13375" start_time="00:00:00" end_time="08:45:00" />
			<leg mode="car" >
			</leg>
			<act type="work" x="1236747.40889" y="5796901.25938" start_time="09:10:00" end_time="17:10:00" />
			<leg mode="car" >
			</leg>
			<act type="home" x="1238141.01759" y="5791382.13375" start_time="17:30:00" />
		</plan>	
			
		<plan selected="no">	
			<act type="home" x="1238141.04654" y="5791382.14177" start_time="00:00:00" end_time="06:55:00" />
			<leg mode="car" >
			</leg>
			<act type="work" x="1238114.16733" y="5791531.35383" start_time="07:20:00" end_time="16:20:00" />
			<leg mode="car" >
			</leg>
			<act type="home" x="1238141.04654" y="5791382.14177" start_time="16:20:00" />
		</plan>	
			
		<plan selected="no">	
			<act type="home" x="1238141.04654" y="5791382.14177" start_time="00:00:00" end_time="08:55:00" />
			<leg mode="car" >
			</leg>
			<act type="shop" x="1240709.08032" y="5787974.05405" start_time="09:20:00" end_time="10:10:00" />
			<leg mode="car" >
			</leg>
			<act type="home" x="1238141.04654" y="5791382.14177" start_time="10:20:00" end_time="10:40:00" />
			<leg mode="car" >
			</leg>
			<act type="work" x="1238390.67382" y="5791694.05471" start_time="11:00:00" end_time="14:50:00" />
			<leg mode="car" >
			</leg>
			<act type="home" x="1238141.04654" y="5791382.14177" start_time="15:10:00" />
		</plan>	
			
		<plan selected="no">	
			<act type="home" x="1238141.04654" y="5791382.14177" start_time="00:00:00" end_time="08:15:00" />
			<leg mode="car" >
			</leg>
			<act type="shop" x="1241250.12644" y="5790591.42162" start_time="08:40:00" end_time="09:10:00" />
			<leg mode="car" >
			</leg>
			<act type="home" x="1238141.04654" y="5791382.14177" start_time="09:30:00" end_time="12:50:00" />
			<leg mode="car" >
			</leg>
			<act type="work" x="1238281.6809" y="5790749.29207" start_time="13:10:00" end_time="21:20:00" />
			<leg mode="car" >
			</leg>
			<act type="home" x="1238141.04654" y="5791382.14177" start_time="21:40:00" />
		</plan>	
			
		<plan selected="no">	
			<act type="home" x="1238141.04654" y="5791382.14177" start_time="00:00:00" end_time="07:05:00" />
			<leg mode="car" >
			</leg>
			<act type="work" x="1238505.55553" y="5791366.48986" start_time="07:30:00" end_time="08:40:00" />
			<leg mode="car" >
			</leg>
			<act type="leisure" x="1236210.67083" y="5783181.91158" start_time="08:50:00" end_time="10:40:00" />
			<leg mode="car" >
			</leg>
			<act type="work" x="1238505.55553" y="5791366.48986" start_time="10:50:00" end_time="12:00:00" />
			<leg mode="car" >
			</leg>
			<act type="work" x="1238505.55553" y="5791366.48986" start_time="12:10:00" end_time="13:50:00" />
			<leg mode="car" >
			</leg>
			<act type="work" x="1238505.55553" y="5791366.48986" start_time="14:00:00" end_time="15:10:00" />
			<leg mode="car" >
			</leg>
			<act type="work" x="1238505.55553" y="5791366.48986" start_time="15:30:00" end_time="17:30:00" />
			<leg mode="car" >
			</leg>
			<act type="leisure" x="1238681.05071" y="5791594.20351" start_time="17:50:00" end_time="19:40:00" />
			<leg mode="car" >
			</leg>
			<act type="work" x="1238505.55553" y="5791366.48986" start_time="19:50:00" end_time="22:30:00" />
			<leg mode="car" >
			</leg>
			<act type="work" x="1238505.55553" y="5791366.48986" start_time="22:50:00" end_time="23:00:00" />
			<leg mode="car" >
			</leg>
			<act type="leisure" x="1239342.55565" y="5787808.90342" start_time="23:10:00" end_time="23:30:00" />
			<leg mode="car" >
			</leg>
			<act type="home" x="1238141.04654" y="5791382.14177" start_time="23:50:00" />
		</plan>	
			
	</person>		
			
<!-- ====================================================================== -->			
			
	<person id="10" sex="f" age="25" license="yes" car_avail="always" employed="no">		
		<plan selected="no">	